powerflow scaled loads and generation PSSE/new_9.csv
;Bus Name;Area Number;Zone Number;Volt (PU);Volt (KV);Angle (Deg);Gen MW;Gen MVAR;Load MW;Load MVAR;Shunt MW;Shunt MVAR;To Bus Name;MW;MVAR;Transformer Ratio;Transformer Angle (Deg);Percent;Rating
;101     NUC-A       21.600;1;77;1.0200;22.0320;1.6322;750.0000;125.2095;0.0000;0.0000;0.0000;-0.0000;;0.0000;0.0000;;0.0000;0;
;;0;0;0.0000;0.0000;0.0000;0.0000;0.0000;0.0000;0.0000;0.0000;0.0000;151     NUCPANT     500.00    1  1;749.9995;125.2095;1.000UN;0.0000;61;1250
;102     NUC-B       21.600;1;77;1.0200;22.0320;1.6322;750.0000;125.2095;0.0000;0.0000;0.0000;-0.0000;;0.0000;0.0000;;0.0000;0;
;;0;0;0.0000;0.0000;0.0000;0.0000;0.0000;0.0000;0.0000;0.0000;0.0000;151     NUCPANT     500.00    1  1;749.9995;125.2095;1.000UN;0.0000;61;1250
;151     NUCPANT     500.00;1;1;1.0060;503.0226;-4.0513;0.0000;0.0000;0.0000;0.0000;0.0000;607.2761;;0.0000;0.0000;;0.0000;0;
;;0;0;0.0000;0.0000;0.0000;0.0000;0.0000;0.0000;0.0000;0.0000;0.0000;101     NUC-A       21.600    1  1;-748.3323;-49.6308;1.000LK;0.0000;60;1250
;;0;0;0.0000;0.0000;0.0000;0.0000;0.0000;0.0000;0.0000;0.0000;0.0000;102     NUC-B       21.600    1  1;-748.3323;-49.6308;1.000LK;0.0000;60;1250
;;0;0;0.0000;0.0000;0.0000;0.0000;0.0000;0.0000;0.0000;0.0000;0.0000;152     MID500      500.00    1  1;439.5884;-103.6066;;0.0000;37;1200
;;0;0;0.0000;0.0000;0.0000;0.0000;0.0000;0.0000;0.0000;0.0000;0.0000;152     MID500      500.00    1  2;439.5884;-103.6066;;0.0000;37;1200
;;0;0;0.0000;0.0000;0.0000;0.0000;0.0000;0.0000;0.0000;0.0000;0.0000;201     HYDRO       500.00    2  1;617.4829;-300.8014;;0.0000;57;1200
;152     MID500      500.00;1;1;0.9815;490.7381;-15.7552;0.0000;0.0000;0.0000;0.0000;0.0000;-0.0000;;0.0000;0.0000;;0.0000;0;
;;0;0;0.0000;0.0000;0.0000;0.0000;0.0000;0.0000;0.0000;0.0000;0.0000;151     NUCPANT     500.00    1  1;-434.4856;-151.8116;;0.0000;39;1200
;;0;0;0.0000;0.0000;0.0000;0.0000;0.0000;0.0000;0.0000;0.0000;0.0000;151     NUCPANT     500.00    1  2;-434.4856;-151.8116;;0.0000;39;1200
;;0;0;0.0000;0.0000;0.0000;0.0000;0.0000;0.0000;0.0000;0.0000;0.0000;153     MID230      230.00    1  1;766.2805;393.2939;1.009LK;0.0000;34;2500
;;0;0;0.0000;0.0000;0.0000;0.0000;0.0000;0.0000;0.0000;0.0000;0.0000;202     EAST500     500.00    2  1;161.1230;3.0146;;0.0000;14;1200
;;0;0;0.0000;0.0000;0.0000;0.0000;0.0000;0.0000;0.0000;0.0000;0.0000;3004     WEST        500.00    5  1;-58.4397;-92.6857;;0.0000;0;
;153     MID230      230.00;1;1;0.9530;219.1800;-18.1249;0.0000;0.0000;234.3316;100.0000;0.0000;-0.0000;;0.0000;0.0000;;0.0000;0;
;;0;0;0.0000;0.0000;0.0000;0.0000;0.0000;0.0000;0.0000;0.0000;0.0000;152     MID500      500.00    1  1;-766.2805;-354.0616;1.000UN;0.0000;34;2500
;;0;0;0.0000;0.0000;0.0000;0.0000;0.0000;0.0000;0.0000;0.0000;0.0000;154     DOWNTN      230.00    1  1;321.2546;133.3966;;0.0000;122;300
;;0;0;0.0000;0.0000;0.0000;0.0000;0.0000;0.0000;0.0000;0.0000;0.0000;154     DOWNTN      230.00    1  2;267.7122;108.1368;;0.0000;101;300
;;0;0;0.0000;0.0000;0.0000;0.0000;0.0000;0.0000;0.0000;0.0000;0.0000;3006     UPTOWN      230.00    5  1;-57.0185;12.5289;;0.0000;0;
;154     DOWNTN      230.00;1;1;0.8829;203.0588;-27.5426;0.0000;0.0000;1171.6580;800.0000;0.0000;-233.8349;;0.0000;0.0000;;0.0000;0;
;;0;0;0.0000;0.0000;0.0000;0.0000;0.0000;0.0000;0.0000;0.0000;0.0000;153     MID230      230.00    1  1;-314.5248;-81.2658;;0.0000;123;300
;;0;0;0.0000;0.0000;0.0000;0.0000;0.0000;0.0000;0.0000;0.0000;0.0000;153     MID230      230.00    1  2;-262.1040;-70.3197;;0.0000;102;300
;;0;0;0.0000;0.0000;0.0000;0.0000;0.0000;0.0000;0.0000;0.0000;0.0000;203     EAST230     230.00    2  1;-135.6617;-67.0768;;0.0000;86;200
;;0;0;0.0000;0.0000;0.0000;0.0000;0.0000;0.0000;0.0000;0.0000;0.0000;205     SUB230      230.00    2  1;-245.3936;-290.3240;;0.0000;72;600
;;0;0;0.0000;0.0000;0.0000;0.0000;0.0000;0.0000;0.0000;0.0000;0.0000;3008     CATDOG      230.00    5  1;-213.9485;-57.1708;;0.0000;63;400
;201     HYDRO       500.00;2;2;1.0400;520.0001;-9.2620;0.0000;0.0000;0.0000;0.0000;0.0000;-324.4800;;0.0000;0.0000;;0.0000;0;
;;0;0;0.0000;0.0000;0.0000;0.0000;0.0000;0.0000;0.0000;0.0000;0.0000;151     NUCPANT     500.00    1  1;-613.1463;240.2270;;0.0000;53;1200
;;0;0;0.0000;0.0000;0.0000;0.0000;0.0000;0.0000;0.0000;0.0000;0.0000;202     EAST500     500.00    2  1;545.7295;151.3338;;0.0000;45;1200
;;0;0;0.0000;0.0000;0.0000;0.0000;0.0000;0.0000;0.0000;0.0000;0.0000;205     SUB230      230.00    2  &1;664.6086;210.7559;;0.0000;56;1200
;;0;0;0.0000;0.0000;0.0000;0.0000;0.0000;0.0000;0.0000;0.0000;0.0000;211     HYDRO_G     20.000    2  1;-597.2087;-277.7723;1.000LK;0.0000;82;800
;202     EAST500     500.00;2;2;0.9753;487.6627;-16.6962;0.0000;0.0000;0.0000;0.0000;0.0000;-0.0000;;0.0000;0.0000;;0.0000;0;
;;0;0;0.0000;0.0000;0.0000;0.0000;0.0000;0.0000;0.0000;0.0000;0.0000;152     MID500      500.00    1  1;-160.8876;-91.0141;;0.0000;16;1200
;;0;0;0.0000;0.0000;0.0000;0.0000;0.0000;0.0000;0.0000;0.0000;0.0000;201     HYDRO       500.00    2  1;-538.9773;-270.2175;;0.0000;52;1200
;;0;0;0.0000;0.0000;0.0000;0.0000;0.0000;0.0000;0.0000;0.0000;0.0000;203     EAST230     230.00    2  1;699.8563;361.2313;1.000LK;0.0000;98;800
;203     EAST230     230.00;2;2;0.9195;211.4862;-23.8885;0.0000;0.0000;351.4975;150.0000;0.0000;-42.2745;;0.0000;0.0000;;0.0000;0;
;;0;0;0.0000;0.0000;0.0000;0.0000;0.0000;0.0000;0.0000;0.0000;0.0000;154     DOWNTN      230.00    1  1;136.8110;70.4453;;0.0000;84;200
;;0;0;0.0000;0.0000;0.0000;0.0000;0.0000;0.0000;0.0000;0.0000;0.0000;202     EAST500     500.00    2  1;-697.2480;-255.2701;1.000UN;0.0000;93;800
;;0;0;0.0000;0.0000;0.0000;0.0000;0.0000;0.0000;0.0000;0.0000;0.0000;205     SUB230      230.00    2  1;104.4714;38.5503;;0.0000;61;200
;;0;0;0.0000;0.0000;0.0000;0.0000;0.0000;0.0000;0.0000;0.0000;0.0000;205     SUB230      230.00    2  2;104.4714;38.5503;;0.0000;61;200
;205     SUB230      230.00;2;2;0.8946;205.7666;-27.0185;0.0000;0.0000;1405.9900;700.0000;0.0000;-240.1128;;0.0000;0.0000;;0.0000;0;
;;0;0;0.0000;0.0000;0.0000;0.0000;0.0000;0.0000;0.0000;0.0000;0.0000;154     DOWNTN      230.00    1  1;245.9969;289.3019;;0.0000;71;600
;;0;0;0.0000;0.0000;0.0000;0.0000;0.0000;0.0000;0.0000;0.0000;0.0000;201     HYDRO       500.00    2  &1;-647.2839;-213.3584;1.000UN;0.0000;85;800
;;0;0;0.0000;0.0000;0.0000;0.0000;0.0000;0.0000;0.0000;0.0000;0.0000;203     EAST230     230.00    2  1;-103.7220;-38.3890;;0.0000;62;200
;;0;0;0.0000;0.0000;0.0000;0.0000;0.0000;0.0000;0.0000;0.0000;0.0000;203     EAST230     230.00    2  2;-103.7220;-38.3890;;0.0000;62;200
;;0;0;0.0000;0.0000;0.0000;0.0000;0.0000;0.0000;0.0000;0.0000;0.0000;206     URBGEN      18.000    2  1;-797.2297;-459.0458;1.000LK;0.0000;102;900
;206     URBGEN      18.000;2;2;0.9725;17.5045;-20.0815;799.9999;600.0000;0.0000;0.0000;0.0000;-0.0000;;0.0000;0.0000;;0.0000;0;
;;0;0;0.0000;0.0000;0.0000;0.0000;0.0000;0.0000;0.0000;0.0000;0.0000;205     SUB230      230.00    2  1;799.9789;599.9940;1.000UN;0.0000;111;900
;211     HYDRO_G     20.000;2;2;1.1073;22.1463;-3.0325;600.0000;363.0677;0.0000;0.0000;0.0000;-0.0000;;0.0000;0.0000;;0.0000;0;
;;0;0;0.0000;0.0000;0.0000;0.0000;0.0000;0.0000;0.0000;0.0000;0.0000;201     HYDRO       500.00    2  1;600.0163;363.0033;1.000UN;0.0000;88;800
;3001     MINE        230.00;5;5;1.0118;232.7165;-4.5652;0.0000;0.0000;0.0000;0.0000;0.0000;-0.0000;;0.0000;0.0000;;0.0000;0;
;;0;0;0.0000;0.0000;0.0000;0.0000;0.0000;0.0000;0.0000;0.0000;0.0000;3002     E. MINE     500.00    5  1;255.5106;49.2495;1.000LK;0.0000;33;800
;;0;0;0.0000;0.0000;0.0000;0.0000;0.0000;0.0000;0.0000;0.0000;0.0000;3003     S. MINE     230.00    5  1;586.7361;185.7418;;0.0000;0;
;;0;0;0.0000;0.0000;0.0000;0.0000;0.0000;0.0000;0.0000;0.0000;0.0000;3011     MINE_G      13.800    5  1;-842.2494;-234.9913;1.000LK;0.0000;67;1300
;3002     E. MINE     500.00;5;5;1.0045;502.2305;-6.7181;0.0000;0.0000;0.0000;0.0000;0.0000;-0.0000;;0.0000;0.0000;;0.0000;0;
;;0;0;0.0000;0.0000;0.0000;0.0000;0.0000;0.0000;0.0000;0.0000;0.0000;3001     MINE        230.00    5  1;-255.3122;-39.3286;1.000UN;0.0000;32;800
;;0;0;0.0000;0.0000;0.0000;0.0000;0.0000;0.0000;0.0000;0.0000;0.0000;3004     WEST        500.00    5  1;255.3116;39.3286;;0.0000;0;
;3003     S. MINE     230.00;5;5;0.9982;229.5868;-7.2290;0.0000;0.0000;0.0000;0.0000;0.0000;-0.0000;;0.0000;0.0000;;0.0000;0;
;;0;0;0.0000;0.0000;0.0000;0.0000;0.0000;0.0000;0.0000;0.0000;0.0000;3001     MINE        230.00    5  1;-586.7361;-156.1443;;0.0000;0;
;;0;0;0.0000;0.0000;0.0000;0.0000;0.0000;0.0000;0.0000;0.0000;0.0000;3005     WEST        230.00    5  1;293.3672;78.0722;;0.0000;0;
;;0;0;0.0000;0.0000;0.0000;0.0000;0.0000;0.0000;0.0000;0.0000;0.0000;3005     WEST        230.00    5  2;293.3672;78.0722;;0.0000;0;
;3004     WEST        500.00;5;5;0.9750;487.4836;-14.6555;0.0000;0.0000;0.0000;0.0000;0.0000;-0.0000;;0.0000;0.0000;;0.0000;0;
;;0;0;0.0000;0.0000;0.0000;0.0000;0.0000;0.0000;0.0000;0.0000;0.0000;152     MID500      500.00    1  1;58.5699;-145.2434;;0.0000;0;
;;0;0;0.0000;0.0000;0.0000;0.0000;0.0000;0.0000;0.0000;0.0000;0.0000;3002     E. MINE     500.00    5  1;-251.3207;-12.2290;;0.0000;0;
;;0;0;0.0000;0.0000;0.0000;0.0000;0.0000;0.0000;0.0000;0.0000;0.0000;3005     WEST        230.00    5  1;192.7492;157.4723;1.000LK;0.0000;31;800
;3005     WEST        230.00;5;5;0.9485;218.1441;-16.5576;0.0000;0.0000;117.1658;50.0000;0.0000;-0.0000;;0.0000;0.0000;;0.0000;0;
;;0;0;0.0000;0.0000;0.0000;0.0000;0.0000;0.0000;0.0000;0.0000;0.0000;3003     S. MINE     230.00    5  1;-287.7743;-36.2683;;0.0000;0;
;;0;0;0.0000;0.0000;0.0000;0.0000;0.0000;0.0000;0.0000;0.0000;0.0000;3003     S. MINE     230.00    5  2;-287.7743;-36.2683;;0.0000;0;
;;0;0;0.0000;0.0000;0.0000;0.0000;0.0000;0.0000;0.0000;0.0000;0.0000;3004     WEST        500.00    5  1;-192.4885;-146.8819;1.000UN;0.0000;30;800
;;0;0;0.0000;0.0000;0.0000;0.0000;0.0000;0.0000;0.0000;0.0000;0.0000;3006     UPTOWN      230.00    5  1;57.1947;-19.9295;;0.0000;0;
;;0;0;0.0000;0.0000;0.0000;0.0000;0.0000;0.0000;0.0000;0.0000;0.0000;3008     CATDOG      230.00    5  &1;355.8391;120.2411;;0.0000;0;
;;0;0;0.0000;0.0000;0.0000;0.0000;0.0000;0.0000;0.0000;0.0000;0.0000;3008     CATDOG      230.00    5  1;237.8340;69.1072;;0.0000;0;
;3006     UPTOWN      230.00;5;5;0.9518;218.9218;-17.6839;0.0000;0.0000;0.0000;0.0000;0.0000;-0.0000;;0.0000;0.0000;;0.0000;0;
;;0;0;0.0000;0.0000;0.0000;0.0000;0.0000;0.0000;0.0000;0.0000;0.0000;153     MID230      230.00    1  1;57.0564;-14.7950;;0.0000;0;
;;0;0;0.0000;0.0000;0.0000;0.0000;0.0000;0.0000;0.0000;0.0000;0.0000;3005     WEST        230.00    5  1;-57.0565;14.7950;;0.0000;0;
;3008     CATDOG      230.00;5;5;0.9022;207.5142;-24.2435;0.0000;0.0000;234.3316;75.0000;0.0000;-0.0000;;0.0000;0.0000;;0.0000;0;
;;0;0;0.0000;0.0000;0.0000;0.0000;0.0000;0.0000;0.0000;0.0000;0.0000;154     DOWNTN      230.00    1  1;215.6057;46.7721;;0.0000;61;400
;;0;0;0.0000;0.0000;0.0000;0.0000;0.0000;0.0000;0.0000;0.0000;0.0000;3005     WEST        230.00    5  &1;-116.2824;-11.7731;;0.0000;0;
;;0;0;0.0000;0.0000;0.0000;0.0000;0.0000;0.0000;0.0000;0.0000;0.0000;3005     WEST        230.00    5  1;-233.6909;-44.8631;;0.0000;0;
;;0;0;0.0000;0.0000;0.0000;0.0000;0.0000;0.0000;0.0000;0.0000;0.0000;3018     CATDOG_G    13.800    5  1;-99.9610;-65.1355;1.000LK;0.0000;80;150
;3011     MINE_G      13.800;5;5;1.0400;14.3520;0.0000;843.7432;309.6772;0.0000;0.0000;0.0000;-0.0000;;0.0000;0.0000;;0.0000;0;
;;0;0;0.0000;0.0000;0.0000;0.0000;0.0000;0.0000;0.0000;0.0000;0.0000;3001     MINE        230.00    5  1;843.7432;309.6772;1.000UN;0.0000;69;1300
;3018     CATDOG_G    13.800;5;5;0.9684;13.3640;-18.6719;100.0000;80.0000;0.0000;0.0000;0.0000;-0.0000;;0.0000;0.0000;;0.0000;0;
;;0;0;0.0000;0.0000;0.0000;0.0000;0.0000;0.0000;0.0000;0.0000;0.0000;3008     CATDOG      230.00    5  1;99.9977;79.9993;1.000UN;0.0000;85;150
